data_I
_audit_creation_method         'generated by CrystalMaker 11.1.1 for macOS'
_cell_length_a                  11.910400(4)
_cell_length_b                  11.910400(4)
_cell_length_c                  11.910400(4)
_cell_angle_alpha               90.000000(0)
_cell_angle_beta                90.000000(0)
_cell_angle_gamma               90.000000(0)

_symmetry_cell_setting                   cubic
_symmetry_Int_Tables_number         230
_symmetry_space_group_name_H-M     'I a -3 d'
_symmetry_space_group_name_Hall          '-I 4bd;2ab;3'

loop_
_symmetry_equiv_pos_as_xyz
'+x,+y,+z'
'+z,+x,+y'
'+y,+z,+x'
'1/2+x,+y,1/2-z'
'1/2+z,+x,1/2-y'
'1/2+y,+z,1/2-x'
'1/2-x,1/2+y,+z'
'1/2-z,1/2+x,+y'
'1/2-y,1/2+z,+x'
'-x,1/2+y,1/2-z'
'-z,1/2+x,1/2-y'
'-y,1/2+z,1/2-x'
'1/4+y,1/4+x,1/4+z'
'1/4+x,1/4+z,1/4+y'
'1/4+z,1/4+y,1/4+x'
'1/4+y,3/4+x,3/4-z'
'1/4+x,3/4+z,3/4-y'
'1/4+z,3/4+y,3/4-x'
'3/4+y,3/4-x,1/4+z'
'3/4+x,3/4-z,1/4+y'
'3/4+z,3/4-y,1/4+x'
'3/4+y,1/4-x,3/4-z'
'3/4+x,1/4-z,3/4-y'
'3/4+z,1/4-y,3/4-x'
'-x,-y,-z'
'-z,-x,-y'
'-y,-z,-x'
'1/2-x,-y,1/2+z'
'1/2-z,-x,1/2+y'
'1/2-y,-z,1/2+x'
'1/2+x,1/2-y,-z'
'1/2+z,1/2-x,-y'
'1/2+y,1/2-z,-x'
'+x,1/2-y,1/2+z'
'+z,1/2-x,1/2+y'
'+y,1/2-z,1/2+x'
'3/4-y,3/4-x,3/4-z'
'3/4-x,3/4-z,3/4-y'
'3/4-z,3/4-y,3/4-x'
'3/4-y,1/4-x,1/4+z'
'3/4-x,1/4-z,1/4+y'
'3/4-z,1/4-y,1/4+x'
'1/4-y,1/4+x,3/4-z'
'1/4-x,1/4+z,3/4-y'
'1/4-z,1/4+y,3/4-x'
'1/4-y,3/4+x,1/4+z'
'1/4-x,3/4+z,1/4+y'
'1/4-z,3/4+y,1/4+x'
'1/2+x,1/2+y,1/2+z'
'1/2+z,1/2+x,1/2+y'
'1/2+y,1/2+z,1/2+x'
'+x,1/2+y,-z'
'+z,1/2+x,-y'
'+y,1/2+z,-x'
'-x,+y,1/2+z'
'-z,+x,1/2+y'
'-y,+z,1/2+x'
'1/2-x,+y,-z'
'1/2-z,+x,-y'
'1/2-y,+z,-x'
'3/4+y,3/4+x,3/4+z'
'3/4+x,3/4+z,3/4+y'
'3/4+z,3/4+y,3/4+x'
'3/4+y,1/4+x,1/4-z'
'3/4+x,1/4+z,1/4-y'
'3/4+z,1/4+y,1/4-x'
'1/4+y,1/4-x,3/4+z'
'1/4+x,1/4-z,3/4+y'
'1/4+z,1/4-y,3/4+x'
'1/4+y,3/4-x,1/4-z'
'1/4+x,3/4-z,1/4-y'
'1/4+z,3/4-y,1/4-x'
'1/2-x,1/2-y,1/2-z'
'1/2-z,1/2-x,1/2-y'
'1/2-y,1/2-z,1/2-x'
'-x,1/2-y,+z'
'-z,1/2-x,+y'
'-y,1/2-z,+x'
'+x,-y,1/2-z'
'+z,-x,1/2-y'
'+y,-z,1/2-x'
'1/2+x,-y,+z'
'1/2+z,-x,+y'
'1/2+y,-z,+x'
'1/4-y,1/4-x,1/4-z'
'1/4-x,1/4-z,1/4-y'
'1/4-z,1/4-y,1/4-x'
'1/4-y,3/4-x,3/4+z'
'1/4-x,3/4-z,3/4+y'
'1/4-z,3/4-y,3/4+x'
'3/4-y,3/4+x,1/4-z'
'3/4-x,3/4+z,1/4-y'
'3/4-z,3/4+y,1/4-x'
'3/4-y,1/4+x,3/4+z'
'3/4-x,1/4+z,3/4+y'
'3/4-z,1/4+y,3/4+x'

loop_
_atom_site_label
_atom_site_type_symbol
_atom_site_occupancy
_atom_site_fract_x
_atom_site_fract_y
_atom_site_fract_z
_atom_site_U_iso_or_equiv
_atom_site_thermal_displace_type
 Al2  Al 1.0  0.25000000(0)  0.62500000(0)  0.50000000(0)  0.00499 Uani
 Al3  Al 1.0  0.50000000(0)  0.50000000(0)  0.50000000(0)  0.00238 Uani
 Lu1  Lu 1.0  0.25000000(0)  0.37500000(0)  0.50000000(0)  0.00350 Uani
 O1  O 1.0  0.35067000(6000)  0.53004000(6000)  0.44756000(6000)  0.00440 Uani

loop_
_atom_site_aniso_label
_atom_site_aniso_U_11
_atom_site_aniso_U_22
_atom_site_aniso_U_33
_atom_site_aniso_U_23
_atom_site_aniso_U_13
_atom_site_aniso_U_12
Al2   0.00489 0.00520 0.00489 0.00000 0.00000 0.00000
Al3   0.00238 0.00238 0.00238 0.00030 0.00030 0.00030
Lu1   0.00402 0.00245 0.00402 0.00000 0.00100 0.00000
O1   0.00470 0.00400 0.00450 -0.00033 0.00050 0.00057
