
#######################################################################
#
#                 Cambridge Crystallographic Data Centre
#                                CCDC
#
#######################################################################
#
# If this CIF has been generated from an entry in the Cambridge
# Structural Database, then it will include bibliographic, chemical,
# crystal, experimental, refinement or atomic coordinate data resulting
# from the CCDC's data processing and validation procedures.
#
#######################################################################

data_glycine_kinematical
_symmetry_cell_setting           monoclinic
_symmetry_space_group_name_H-M   'P 21/n'
_symmetry_Int_Tables_number      14
_space_group_name_Hall           '-P 2yn'
loop_
_symmetry_equiv_pos_site_id
_symmetry_equiv_pos_as_xyz
1 x,y,z
2 1/2-x,1/2+y,1/2-z
3 -x,-y,-z
4 1/2+x,1/2-y,1/2+z
_cell_length_a                   5.0893
_cell_length_b                   11.8124
_cell_length_c                   5.4668
_cell_angle_alpha                90
_cell_angle_beta                 112.0058
_cell_angle_gamma                90
_cell_volume                     304.704
loop_
_atom_site_label
_atom_site_type_symbol
_atom_site_fract_x
_atom_site_fract_y
_atom_site_fract_z
_atom_site_U_iso_or_equiv
_atom_site_thermal_displace_type
C2 C 0.4265(6) 0.1268(6) 0.4337(6) 0.0196 Uani
C1 C 0.4392(8) 0.1465(8) 0.7148(7) 0.0238 Uani
H1c1 H 0.419(7) 0.2380(8) 0.730(7) 0.0490 Uiso
H2c1 H 0.635(4) 0.117(4) 0.870(3) 0.0320 Uiso
N1 N 0.2031(7) 0.0886(6) 0.7593(6) 0.0195 Uani
H1n1 H 0.204(6) 0.0031(7) 0.722(5) 0.0270 Uiso
H2n1 H 0.010(4) 0.116(4) 0.627(4) 0.0390 Uiso
H3n1 H 0.205(4) 0.099(3) 0.9472(19) 0.0240 Uiso
O1 O 0.6510(6) 0.1414(5) 0.3934(5) 0.0199 Uani
O2 O 0.1950(5) 0.0945(5) 0.2639(4) 0.0184 Uani
loop_
_atom_site_aniso_label
_atom_site_aniso_U_11
_atom_site_aniso_U_22
_atom_site_aniso_U_33
_atom_site_aniso_U_23
_atom_site_aniso_U_13
_atom_site_aniso_U_12
C2 0.0038(14) 0.051(6) 0.0050(14) -0.008(2) 0.0029(10) -0.011(2)
C1 0.0063(16) 0.057(8) 0.0079(15) 0.003(2) 0.0025(11) -0.002(3)
N1 0.0119(16) 0.040(6) 0.0076(13) 0.002(2) 0.0048(10) -0.007(2)
O1 0.0113(13) 0.040(5) 0.0114(13) 0.0008(17) 0.0076(9) -0.0025(19)
O2 0.0100(13) 0.041(5) 0.0057(12) -0.0054(17) 0.0045(9) 0.0000(18)

#END
