
##########################################################################
#               Crystallographic Information Format file
#               Produced by PyCifRW module
#
#  This is a CIF file.  CIF has been adopted by the International
#  Union of Crystallography as the standard for data archiving and
#  transmission.
#
#  For information on this file format, follow the CIF links at
#  http://www.iucr.org
##########################################################################

data_xanthine_form_1

_symmetry_cell_setting                  monoclinic
_symmetry_space_group_name_H-M          'P 21/c'
_symmetry_Int_Tables_number             14
_space_group_name_Hall                  '-P 2ybc'
loop_
  _symmetry_equiv_pos_site_id
  _symmetry_equiv_pos_as_xyz
         1         'x,y,z'
         2         '-x,1/2+y,1/2-z'
         3         '-x,-y,-z'
         4         'x,1/2-y,1/2+z'
_cell_length_a                          10.01(11)
_cell_length_b                          18.23(8)
_cell_length_c                          6.93(13)
_cell_angle_alpha                       90
_cell_angle_beta                        107.5(9)
_cell_angle_gamma                       90
_cell_volume                            1204.62
loop_
  _atom_site_label
  _atom_site_type_symbol
  _atom_site_fract_x
  _atom_site_fract_y
  _atom_site_fract_z
  _atom_site_U_iso_or_equiv
  _atom_site_thermal_displace_type
         N1        N         0.083628  0.753157  0.321007  0.000777  Uiso
         H1        H         0.173072  0.777466  0.416246  0.003042  Uiso
         C2        C         -0.035791 0.783310  0.197021  0.000263  Uiso
         H2        H         -0.040658 0.842360  0.193048  0.004878  Uiso
         N3        N         -0.135158 0.734935  0.092441  0.008580  Uiso
         N4        N         -0.128207 0.598455  0.099267  0.007873  Uiso
         H4        H         -0.236393 0.588674  -0.019071 0.014381  Uiso
         C5        C         -0.055155 0.536307  0.187003  0.001349  Uiso
         N6        N         0.074482  0.547592  0.328154  0.008645  Uiso
         H6        H         0.127686  0.497577  0.392755  0.014203  Uiso
         C7        C         0.142490  0.613874  0.396853  0.003508  Uiso
         C8        C         0.064906  0.678110  0.301684  0.004094  Uiso
         C9        C         -0.071958 0.668929  0.154215  0.000797  Uiso
         O10       O         -0.102548 0.472819  0.142107  0.010954  Uiso
         O11       O         0.262212  0.616993  0.528757  0.005754  Uiso
         N21       N         0.414052  0.283154  0.682477  0.007773  Uiso
         H21       H         0.326063  0.258214  0.603407  0.009688  Uiso
         C22       C         0.536763  0.252105  0.795390  0.005368  Uiso
         H22       H         0.552824  0.188646  0.813930  0.035090  Uiso
         N23       N         0.640776  0.301922  0.888251  0.009481  Uiso
         N24       N         0.631721  0.439421  0.876439  0.009803  Uiso
         H24       H         0.732705  0.446553  0.967975  0.010907  Uiso
         C25       C         0.551818  0.501060  0.802882  0.000421  Uiso
         N26       N         0.413889  0.489898  0.677796  0.003806  Uiso
         H26       H         0.361142  0.540962  0.631264  0.003719  Uiso
         C27       C         0.348028  0.422187  0.619612  0.001023  Uiso
         C28       C         0.433954  0.358323  0.697175  0.002245  Uiso
         C29       C         0.576628  0.368336  0.826208  0.000805  Uiso
         O30       O         0.598608  0.564685  0.845617  0.003230  Uiso
         O31       O         0.222580  0.419531  0.504679  0.005667  Uiso
#END
