
#######################################################################
#
#                 Cambridge Crystallographic Data Centre
#                                CCDC
#
#######################################################################
#
# If this CIF has been generated from an entry in the Cambridge
# Structural Database, then it will include bibliographic, chemical,
# crystal, experimental, refinement or atomic coordinate data resulting
# from the CCDC's data processing and validation procedures.
#
#######################################################################

data_I
_symmetry_cell_setting           orthorhombic
_symmetry_space_group_name_H-M   'P b c a'
_symmetry_Int_Tables_number      61
_space_group_name_Hall           '-P 2ac 2ab'
loop_
_symmetry_equiv_pos_site_id
_symmetry_equiv_pos_as_xyz
1 x,y,z
2 1/2-x,-y,1/2+z
3 -x,1/2+y,1/2-z
4 1/2+x,1/2-y,-z
5 -x,-y,-z
6 1/2+x,y,1/2-z
7 x,1/2-y,1/2+z
8 1/2-x,1/2+y,z
_cell_length_a                   11.76
_cell_length_b                   7.232
_cell_length_c                   17.16
_cell_angle_alpha                90
_cell_angle_beta                 90
_cell_angle_gamma                90
_cell_volume                     1459.43
loop_
_atom_site_label
_atom_site_type_symbol
_atom_site_fract_x
_atom_site_fract_y
_atom_site_fract_z
_atom_site_U_iso_or_equiv
_atom_site_thermal_displace_type
O1 O 0.23811(15) 0.7634(7) -0.36882(10) 0.0106 Uiso
O2 O 0.10499(15) 0.7306(8) 0.00259(10) 0.0125 Uiso
N1 N -0.01803(17) 0.7898(7) -0.09645(10) 0.0091 Uiso
C1 C 0.00993(19) 0.8657(7) -0.23025(12) 0.0079 Uiso
C2 C 0.07222(18) 0.8617(6) -0.29990(14) 0.0103 Uiso
C3 C 0.17748(16) 0.7763(7) -0.30127(11) 0.0042 Uiso
C4 C 0.22411(18) 0.7050(7) -0.23316(10) 0.0055 Uiso
C5 C 0.16256(16) 0.7140(7) -0.16301(10) 0.0042 Uiso
C6 C 0.05372(17) 0.7887(7) -0.16157(11) 0.0048 Uiso
C7 C 0.00877(17) 0.7627(8) -0.02019(10) 0.0051 Uiso
C8 C -0.09179(19) 0.7687(8) 0.03401(13) 0.0153 Uiso
H1 H 0.1971(8) 0.650(3) -0.1101(4) 0.0390 Uiso
H2 H 0.3100(8) 0.646(3) -0.2343(4) 0.0390 Uiso
H3 H 0.1831(7) 0.772(4) -0.4130(4) 0.0120 Uiso
H4 H 0.0364(9) 0.917(3) -0.3540(4) 0.0390 Uiso
H5 H -0.0770(8) 0.920(3) -0.2298(5) 0.0390 Uiso
H6 H -0.1043(5) 0.804(4) -0.1098(6) 0.0170 Uiso
H7 H -0.1581(8) 0.858(2) 0.0095(6) 0.0780 Uiso
H8 H -0.1257(9) 0.6292(12) 0.0400(8) 0.0780 Uiso
H9 H -0.0659(7) 0.820(2) 0.0915(5) 0.0780 Uiso

#END
