# Simple CIF test fixture
data_simple_test
_cell_length_a    10.0000
_cell_length_b    10.0000
_cell_length_c    15.0000
_cell_angle_alpha 90.00
_cell_angle_beta  90.00
_cell_angle_gamma 90.00
_cell_volume      1500.00
_space_group_name_H-M_alt  'P 21/c'
_space_group_IT_number     14

loop_
_atom_site_label
_atom_site_type_symbol
_atom_site_fract_x
_atom_site_fract_y
_atom_site_fract_z
C1  C  0.1000  0.2000  0.3000
C2  C  0.2000  0.3000  0.4000
O1  O  0.3000  0.4000  0.5000
N1  N  0.4000  0.5000  0.6000
