
#######################################################################
#
#                 Cambridge Crystallographic Data Centre
#                                CCDC
#
#######################################################################
#
# If this CIF has been generated from an entry in the Cambridge
# Structural Database, then it will include bibliographic, chemical,
# crystal, experimental, refinement or atomic coordinate data resulting
# from the CCDC's data processing and validation procedures.
#
#######################################################################

data_natrolite
_symmetry_cell_setting                   orthorhombic
_symmetry_space_group_name_H-M           'F d d 2'
_symmetry_space_group_name_Hall          'F -2xuvw;-2yuvw;2z'
_symmetry_Int_Tables_number              43

loop_
 _space_group_symop_id
 _space_group_symop_operation_xyz
 1   x,y,z
 2   -x,-y,z
 3   x+1/4,-y+1/4,z+1/4
 4   -x+1/4,y+1/4,z+1/4
 5   x,y+1/2,z+1/2
 6   -x,-y+1/2,z+1/2
 7   x+1/4,-y+3/4,z+3/4
 8   -x+1/4,y+3/4,z+3/4
 9   x+1/2,y,z+1/2
 10  -x+1/2,-y,z+1/2
 11  x+3/4,-y+1/4,z+3/4
 12  -x+3/4,y+1/4,z+3/4
 13  x+1/2,y+1/2,z
 14  -x+1/2,-y+1/2,z
 15  x+3/4,-y+3/4,z+1/4
 16  -x+3/4,y+3/4,z+1/4

_cell_length_a                           18.2682
_cell_length_b                           18.6357
_cell_length_c                           6.6142
_cell_angle_alpha                        90
_cell_angle_beta                         90
_cell_angle_gamma                        90
_cell_volume                             2251.743

loop_
 _atom_site_label
 _atom_site_type_symbol
 _atom_site_fract_x
 _atom_site_fract_y
 _atom_site_fract_z
 _atom_site_adp_type
 _atom_site_U_iso_or_equiv
 _atom_site_site_symmetry_multiplicity
 _atom_site_occupancy
 _atom_site_calc_flag
 _atom_site_refinement_flags
 _atom_site_disorder_assembly
 _atom_site_disorder_group
  Si1 Si 0 0 0 Uani 0.0144(8) 8 1 d . . .
  Si2 Si 0.09680(8) 0.03864(10) -0.3694(4) Uani 0.0132(5) 16 1 d . . .
  Al1 Al -0.03709(8) 0.09389(11) 0.3873(4) Uani 0.0112(6) 16 1 d . . .
  Na1 Na -0.22073(11) 0.03113(15) 0.3837(5) Uani 0.0268(8) 16 1 d . . .
  O1 O 0.06959(13) 0.02263(18) -0.1389(5) Uani 0.0232(8) 16 1 d . . .
  O2 O -0.02218(13) 0.06854(17) 0.1330(5) Uani 0.0248(9) 16 1 d . . .
  O3 O -0.06978(11) 0.18252(15) 0.3914(5) Uani 0.0164(8) 16 1 d . . .
  O4 O -0.09940(13) 0.03478(17) 0.4995(5) Uani 0.0201(9) 16 1 d . . .
  O5 O 0.04374(12) 0.09762(19) 0.5277(5) Uani 0.0206(9) 16 1 d . . .
  O6 O -0.30640(15) 0.0616(2) 0.6387(6) Uani 0.0389(11) 16 1 d . . .
  H1 H -0.3531(5) 0.0645(9) 0.573(2) Uiso 0.0467 16 1 d . . .
  H2 H -0.3050(8) 0.1029(7) 0.725(3) Uiso 0.0467 16 1 d . . .

loop_
 _atom_site_aniso_label
 _atom_site_aniso_type_symbol
 _atom_site_aniso_U_11
 _atom_site_aniso_U_22
 _atom_site_aniso_U_33
 _atom_site_aniso_U_12
 _atom_site_aniso_U_13
 _atom_site_aniso_U_23
 Si1 Si 0.0175(11) 0.0174(19) 0.0083(9) -0.0016(11) 0 0
 Si2 Si 0.0127(8) 0.0139(13) 0.0130(6) 0.0002(6) 0.0014(7) 0.0015(9)
 Al1 Al 0.0099(7) 0.0135(14) 0.0101(7) -0.0004(7) -0.0035(7) -0.0015(10)
 Na1 Na 0.0236(10) 0.0272(19) 0.0296(10) 0.0001(10) -0.0048(11) 0.0084(15)
 O1 O 0.0187(11) 0.032(2) 0.0185(11) -0.0018(11) 0.0013(10) 0.0012(15)
 O2 O 0.0320(13) 0.021(2) 0.0211(11) 0.0007(12) 0.0045(12) -0.0031(16)
 O3 O 0.0110(9) 0.0182(18) 0.0199(10) 0.0009(10) 0.0007(11) 0.0010(15)
 O4 O 0.0205(12) 0.018(2) 0.0215(11) -0.0047(11) 0.0019(10) 0.0078(14)
 O5 O 0.0139(12) 0.027(2) 0.0213(11) 0.0006(11) -0.0025(10) -0.0059(14)
 O6 O 0.0356(16) 0.048(3) 0.0327(14) -0.0050(13) -0.0004(16) -0.016(2)

#END
