
#######################################################################
#
#                 Cambridge Crystallographic Data Centre
#                                CCDC
#
#######################################################################
#
# If this CIF has been generated from an entry in the Cambridge
# Structural Database, then it will include bibliographic, chemical,
# crystal, experimental, refinement or atomic coordinate data resulting
# from the CCDC's data processing and validation procedures.
#
#######################################################################

data_quartz_kinematical
_symmetry_cell_setting           trigonal
_symmetry_space_group_name_H-M   'P 32 2 1'
_symmetry_Int_Tables_number      154
_space_group_name_Hall           'P 32 2"'
loop_
_symmetry_equiv_pos_site_id
_symmetry_equiv_pos_as_xyz
1 x,y,z
2 -y,x-y,2/3+z
3 -x+y,-x,1/3+z
4 y,x,-z
5 x-y,-y,1/3-z
6 -x,-x+y,2/3-z
_cell_length_a                   4.9226
_cell_length_b                   4.9226
_cell_length_c                   5.4003
_cell_angle_alpha                90
_cell_angle_beta                 90
_cell_angle_gamma                120
_cell_volume                     113.328
loop_
_atom_site_label
_atom_site_type_symbol
_atom_site_fract_x
_atom_site_fract_y
_atom_site_fract_z
Si1 Si 1 0.4718(8) 0.833333
O1 O 0.8558(10) 0.5857(10) 0.6177(7)
O1 O 1.1442(10) 0.7299(14) 1.0490(7)
Si1 Si 0.5282(8) 0.5282(8) 0.500000
Si1 Si 1.4718(8) 1 1.166666
O1 O 0.7299(14) 0.1442(10) 0.9510(7)
O1 O 1.2701(14) 0.4143(10) 0.7156(7)

#END
